Circuit: * C:\Users\Daemon\Documents\GitHub\am-transmitter-0.5W\mini-am-transmitter.asc

Per .tran options, skipping operating point for transient analysis.

Date: Sun Apr 05 11:29:21 2026
Total elapsed time: 28.569 seconds.

tnom = 27
temp = 27
method = modified trap
totiter = 4264704
traniter = 4264704
tranpoints = 1799857
accept = 1288692
rejected = 511165
matrix size = 36
fillins = 10
solver = Normal
Matrix Compiler1: 3.42 KB object code size  0.6/0.4/[0.2]
Matrix Compiler2: 3.42 KB object code size  0.3/0.4/[0.2]

