LTspice 26.0.1 for Windows
Circuit: C:\Users\Admin\Documents\GitHub\am-transmitter-0.5W\mini-am-transmitter.net
Start Time: Tue Apr  7 11:17:15 2026
solver = Normal
Maximum thread count: 12
tnom = 27
temp = 27
method = trap
Per .tran options, skipping operating point for transient analysis.
Total elapsed time: 8.784 seconds.

Files loaded:
C:\Users\Admin\Documents\GitHub\am-transmitter-0.5W\mini-am-transmitter.net
C:\Users\Admin\AppData\Local\LTspice\lib\cmp\standard.bjt
C:\Users\Admin\AppData\Local\LTspice\lib\cmp\standard.jft
C:\Users\Admin\AppData\Local\LTspice\lib\sub\Dg_nmos.lib

